Version 4
SHEET 1 880 680
WIRE 112 16 112 -64
WIRE 112 128 112 80
WIRE 112 224 112 208
WIRE -80 272 -176 272
WIRE 48 272 0 272
WIRE 112 352 112 320
FLAG -64 96 V+
IOPIN -64 96 Out
FLAG -64 176 0
FLAG 112 -64 V+
IOPIN 112 -64 In
FLAG 112 352 0
FLAG -176 352 0
SYMBOL voltage -64 80 R0
WINDOW 0 28 30 Left 2
SYMATTR InstName V1
SYMATTR Value 3.7
SYMBOL npn 48 224 R0
SYMATTR InstName Q1
SYMBOL voltage -176 256 R0
WINDOW 3 -61 153 Left 2
WINDOW 123 0 0 Left 0
WINDOW 39 0 0 Left 0
SYMATTR InstName V2
SYMATTR Value PULSE(0 3.3 0.125 0 0 0.125 0.25 10)
SYMBOL res 96 112 R0
SYMATTR InstName R1
SYMATTR Value 15
SYMBOL res 16 256 R90
WINDOW 0 0 56 VBottom 2
WINDOW 3 32 56 VTop 2
SYMATTR InstName R2
SYMATTR Value 9k
SYMBOL diode 96 16 R0
SYMATTR InstName D1
TEXT -240 432 Left 2 !.tran 1
